Circuit: * C:\Users\rubyc\Google Drive\School\Fall 2018\Senior Design Project 1 ECE 480\Project2TransferFunction2018\TransferFunction.asc

Ignoring empty pin current: Ix(x5:vinm)
Ignoring empty pin current: Ix(x5:vinp)
Ignoring empty pin current: Ix(x1:vinm)
Ignoring empty pin current: Ix(x1:vinp)
Ignoring empty pin current: Ix(x2:vinm)
Ignoring empty pin current: Ix(x2:vinp)

Date: Wed Sep 05 13:00:03 2018
Total elapsed time: 0.059 seconds.

tnom = 27
temp = 27
method = trap
totiter = 0
traniter = 0
tranpoints = 0
accept = 0
rejected = 0
matrix size = 15
fillins = 31
solver = Normal

